data/raw/dsuite_networks_scaled_v1.1/spd_u/lines_lbs_spd_u_scaled.dss
new line.5522136 phases=3 bus1=17656611 bus2=9291710 linecode=Cable_230V_0.2_AL length=0.223 units=m !enabled=True; link box
new line.6798675 phases=3 bus1=17656611 bus2=9291613 linecode=Cable_230V_0.2_AL length=0.217 units=m !enabled=True; link box
new line.3065125 phases=3 bus1=12773877 bus2=9291629 linecode=Cable_230V_240_AL_CONSAC length=0.935 units=m !enabled=True; link box
new line.5526144 phases=3 bus1=13414007 bus2=9291630 linecode=Cable_230V_240_AL_CONSAC length=0.588 units=m !enabled=True; link box
new line.6686772 phases=3 bus1=15111323 bus2=9291631 linecode=Cable_230V_240_AL_CONSAC length=0.718 units=m !enabled=True; link box
new line.3386657 phases=3 bus1=15806845 bus2=9291632 linecode=Cable_230V_240_AL_CONSAC length=0.662 units=m !enabled=True; link box
new line.9688593 phases=3 bus1=15273744 bus2=9291633 linecode=Cable_230V_0.3_AL length=0.457 units=m !enabled=True; link box
new line.11007999 phases=3 bus1=15457057 bus2=9333608 linecode=Cable_230V_0.15_AL length=1.89 units=m !enabled=True; link box
!new line.4025581 phases=3 bus1=9327528 bus2=17701205 linecode=UNKNOWN_LV_Cable_M length=0.363 units=m !enabled=False; link box
new line.6751805 phases=3 bus1=17910175 bus2=9335523 linecode=Cable_230V_185_AL length=0.122 units=m !enabled=True; link box
new line.4607016 phases=3 bus1=17910177 bus2=9335536 linecode=Cable_230V_185_AL_WAVEF length=0.184 units=m !enabled=True; link box
new line.9896904 phases=3 bus1=15100481 bus2=9345094 linecode=Cable_230V_0.3_AL length=0.51 units=m !enabled=True; link box
new line.9916646 phases=3 bus1=15093477 bus2=9347416 linecode=Cable_230V_0.06_AL length=4.03 units=m !enabled=True; link box
new line.4363679 phases=3 bus1=15150816 bus2=9347425 linecode=Cable_230V_0.1_AL length=0.0719 units=m !enabled=True; link box
new line.4349222 phases=3 bus1=17701200 bus2=9347419 linecode=Cable_230V_0.1_AL length=0.222 units=m !enabled=True; link box
new line.3928224 phases=3 bus1=15080118 bus2=9347426 linecode=Cable_230V_0.3_AL length=2.73 units=m !enabled=True; link box
!  new line.4476460 phases=3 bus1=14912899 bus2=9348478 linecode=Cable_230V_240_AL_CONSAC length=0.486 units=m !enabled=True; link box; <<<< link box opened link box here!
new line.4509868 phases=3 bus1=14964641 bus2=9348479 linecode=Cable_230V_240_AL_CONSAC length=0.64 units=m !enabled=True; link box
new line.3641215 phases=3 bus1=17701195 bus2=9349265 linecode=Cable_230V_185_AL length=0.237 units=m !enabled=True; link box
new line.9896947 phases=3 bus1=15102111 bus2=9355369 linecode=Cable_230V_0.1_AL length=4.97 units=m !enabled=True; link box
new line.3481954 phases=3 bus1=17701205 bus2=9355482 linecode=Cable_230V_0.25_AL length=0.216 units=m !enabled=True; link box
!new line.6968058 phases=3 bus1=15068454 bus2=9356080 linecode=Cable_230V_185_AL_WAVE length=0.452 units=m !enabled=False; link box
!new line.4607022 phases=3 bus1=17910177 bus2=9395761 linecode=Cable_230V_185_AL_WAVEF length=0.172 units=m !enabled=False; link box
new line.4605559 phases=3 bus1=17910172 bus2=9410714 linecode=Cable_230V_0.3_CU length=0.0937 units=m !enabled=True; link box
!new line.6715047 phases=3 bus1=17910175 bus2=9335526 linecode=Cable_230V_0.2_AL length=0.097 units=m !enabled=False; link box
new line.10982309 phases=3 bus1=17910176 bus2=9333607 linecode=Cable_230V_0.15_AL length=0.216 units=m !enabled=True; link box
new line.3737621 phases=3 bus1=14912822 bus2=9347427 linecode=Cable_230V_0.3_AL length=4.74 units=m !enabled=True; link box
new line.3498870 phases=3 bus1=15461224 bus2=9335535 linecode=Cable_230V_185_AL_WAVEF length=0.492 units=m !enabled=True; link box
new line.4604353 phases=3 bus1=17912560 bus2=9333606 linecode=UNKNOWN_LV_Cable_M length=0.236 units=m !enabled=True; link box
!new line.4349204 phases=3 bus1=9345100 bus2=17701205 linecode=UNKNOWN_LV_Cable_M length=0.216 units=m !enabled=False; link box
new line.4343671 phases=3 bus1=15093472 bus2=9345096 linecode=Cable_230V_185_AL_WAVE length=0.392 units=m !enabled=True; link box
new line.4449469 phases=3 bus1=17701195 bus2=9349260 linecode=Cable_230V_185_AL length=0.217 units=m !enabled=True; link box
!new line.3096694 phases=3 bus1=9358278 bus2=17701188 linecode=Cable_230V_240_AL_CONSAC length=0.119 units=m !enabled=False; link box
new line.4634976 phases=3 bus1=17701203 bus2=9351649 linecode=Cable_230V_0.25_AL length=0.216 units=m !enabled=True; link box
!new line.4476459 phases=3 bus1=9355938 bus2=17701190 linecode=Cable_230V_240_AL_CONSAC length=0.216 units=m !enabled=False; link box
!new line.4509879 phases=3 bus1=14964639 bus2=9356417 linecode=Cable_230V_240_AL_CONSAC length=0.666 units=m !enabled=False; link box
new line.5519914 phases=3 bus1=17633075 bus2=9357473 linecode=Cable_230V_0.3_CU length=0.216 units=m !enabled=True; link box
new line.3638846 phases=3 bus1=17701199 bus2=9347424 linecode=Cable_230V_0.1_AL length=0.322 units=m !enabled=True; link box
new line.5520566 phases=3 bus1=17633075 bus2=9357472 linecode=Cable_230V_0.2_CU length=0.237 units=m !enabled=True; link box
!new line.4335242 phases=3 bus1=9423467 bus2=15100483 linecode=Cable_230V_0.3_AL length=2.79 units=m !enabled=False; link box
new line.3096681 phases=3 bus1=9358277 bus2=15081121 linecode=Cable_230V_240_AL_CONSAC length=0.537 units=m !enabled=True; link box
new line.4582469 phases=3 bus1=14964640 bus2=9348480 linecode=Cable_230V_240_AL_CONSAC length=0.391 units=m !enabled=True; link box
new line.4449464 phases=3 bus1=17701196 bus2=9347428 linecode=Cable_230V_0.1_AL length=0.232 units=m !enabled=True; link box
new line.4335220 phases=3 bus1=17701203 bus2=9351651 linecode=UNKNOWN_LV_Cable_M length=0.218 units=m !enabled=True; link box
new line.10982312 phases=3 bus1=15461199 bus2=9335524 linecode=Cable_230V_0.3_AL length=3.6 units=m !enabled=True; link box
new line.3167542 phases=3 bus1=17701203 bus2=9345091 linecode=UNKNOWN_LV_Cable_M length=0.213 units=m !enabled=True; link box
new line.9917058 phases=3 bus1=15013162 bus2=9355279 linecode=Cable_230V_0.1_AL length=1.37 units=m !enabled=True; link box
new line.4343673 phases=3 bus1=17701201 bus2=9345098 linecode=Cable_230V_0.3_AL length=0.217 units=m !enabled=True; link box
new line.4335243 phases=3 bus1=17701201 bus2=9345095 linecode=Cable_230V_185_AL_WAVE length=0.174 units=m !enabled=True; link box
!new line.9919153 phases=3 bus1=15032822 bus2=9355278 linecode=Cable_230V_0.1_AL length=1.27 units=m !enabled=False; link box
!new line.4449730 phases=3 bus1=17701199 bus2=9356072 linecode=Cable_230V_0.15_AL length=0.307 units=m !enabled=False; link box
!new line.4871785 phases=3 bus1=9402447 bus2=15558140 linecode=Cable_230V_240_AL_CONSAC length=0.564 units=m !enabled=False; link box
new line.3093830 phases=3 bus1=9358275 bus2=15068459 linecode=Cable_230V_185_AL_WAVEF length=0.401 units=m !enabled=True; link box
new line.2868462 phases=3 bus1=17701195 bus2=9349263 linecode=Cable_230V_185_AL length=0.225 units=m !enabled=True; link box
new line.4582328 phases=3 bus1=15140112 bus2=9348481 linecode=Cable_230V_0.25_AL length=2.8 units=m !enabled=True; link box
!new line.4343670 phases=3 bus1=17701201 bus2=9355479 linecode=Cable_230V_185_AL_WAVE length=0.217 units=m !enabled=False; link box
!new line.5524834 phases=3 bus1=9344690 bus2=15021264 linecode=Cable_230V_0.3_AL length=0.22 units=m !enabled=False; link box
new line.6824676 phases=3 bus1=17701190 bus2=9348477 linecode=Cable_230V_0.2_AL length=0.216 units=m !enabled=True; link box
new line.4476450 phases=3 bus1=14964641 bus2=9348469 linecode=Cable_230V_0.2_AL length=3.03 units=m !enabled=True; link box
new line.4454683 phases=3 bus1=17701195 bus2=9349266 linecode=Cable_230V_185_AL length=0.234 units=m !enabled=True; link box
!new line.9904371 phases=3 bus1=14973584 bus2=9355483 linecode=Cable_230V_0.2_AL length=0.59 units=m !enabled=False; link box
!new line.4349220 phases=3 bus1=17701200 bus2=9355480 linecode=Cable_230V_0.15_AL length=0.216 units=m !enabled=False; link box
new line.4476455 phases=3 bus1=14964639 bus2=9348470 linecode=UNKNOWN_LV_Cable_M length=3.57 units=m !enabled=True; link box
new line.4591184 phases=3 bus1=17701199 bus2=9351645 linecode=Cable_230V_0.1_CU length=0.105 units=m !enabled=True; link box
new line.3093799 phases=3 bus1=9358264 bus2=15068462 linecode=Cable_230V_185_AL_WAVEF length=0.697 units=m !enabled=True; link box
!new line.6898982 phases=3 bus1=17910177 bus2=9335283 linecode=Cable_230V_185_AL_WAVEF length=0.19 units=m !enabled=False; link box
new line.4607952 phases=3 bus1=15461226 bus2=9335284 linecode=Cable_230V_0.15_AL length=0.171 units=m !enabled=True; link box
!new line.9914491 phases=3 bus1=15124576 bus2=9349267 linecode=UNKNOWN_LV_Cable_M length=0.545 units=m !enabled=False; link box
new line.5204191 phases=3 bus1=15097169 bus2=11110757 linecode=Cable_230V_25_AL length=0.643 units=m
new line.5520531 phases=3 bus1=15842001 bus2=15739871 linecode=Cable_230V_0.04_AL length=1.17 units=m
new line.5561501 phases=3 bus1=15739872 bus2=15785273 linecode=Cable_230V_0.3_CU length=29.7 units=m
new line.5561503 phases=3 bus1=15785518 bus2=13272298 linecode=Cable_230V_25_CU length=0.336 units=m
new line.5561502 phases=3 bus1=15765140 bus2=13729278 linecode=Cable_230V_25_CU length=0.67 units=m
new line.9549377 phases=3 bus1=15842003 bus2=15842001 linecode=Cable_230V_0.1_CU length=2.79 units=m
new line.5561522 phases=3 bus1=10906688 bus2=15842003 linecode=Cable_230V_0.0125_CU length=1.39 units=m
new line.6156996 phases=3 bus1=16524179 bus2=16524180 linecode=Cable_230V_185_AL_WAVEF length=1.96 units=m
new line.7005630 phases=3 bus1=14958971 bus2=14958978 linecode=Cable_230V_4_CU length=0.111 units=m
new line.9549265 phases=3 bus1=15778321 bus2=15785282 linecode=Cable_230V_0.2_CU length=2.05 units=m
new line.9549374 phases=3 bus1=15766044 bus2=11729244 linecode=Cable_230V_0.0225_CU length=0.189 units=m
new line.9566386 phases=3 bus1=14958978 bus2=15766045 linecode=Cable_230V_0.2_CU length=0.236 units=m
new line.7210465 phases=3 bus1=17633076 bus2=17633077 linecode=CONNECTOR length=0.276 units=m
new line.7210467 phases=3 bus1=9436859 bus2=17633077 linecode=CONNECTOR length=0.0432 units=m
new line.3763750 phases=3 bus1=15745758 bus2=11363293 linecode=Cable_230V_0.0125_AL length=0.387 units=m
new line.3955406 phases=3 bus1=12174093 bus2=12493906 linecode=Cable_230V_25_AL length=1.29 units=m
new line.4226568 phases=3 bus1=9357473 bus2=14814455 linecode=Cable_230V_0.3_CU length=0.143 units=m
new line.4890724 phases=3 bus1=9309164 bus2=17633075 linecode=Cable_230V_0.3_CU length=0.213 units=m
new line.4891841 phases=3 bus1=15522702 bus2=13309424 linecode=Cable_230V_0.0225_CU length=0.537 units=m
new line.5204192 phases=3 bus1=15097169 bus2=14108675 linecode=Cable_230V_0.0225_CU length=0.7 units=m
new line.5519913 phases=3 bus1=17633074 bus2=17633075 linecode=Cable_230V_0.3_CU length=0.0935 units=m
new line.5561510 phases=3 bus1=15766047 bus2=11062192 linecode=Cable_230V_0.0225_CU length=1.2 units=m
new line.5519950 phases=3 bus1=15739872 bus2=15738829 linecode=Cable_230V_185_AL length=2.49 units=m
new line.5519951 phases=3 bus1=15738829 bus2=15739869 linecode=Cable_230V_0.3_CU length=1.13 units=m
new line.5520527 phases=3 bus1=15785277 bus2=11993711 linecode=Cable_230V_25_AL_ACT length=0.53 units=m
new line.5520526 phases=3 bus1=15786478 bus2=11639740 linecode=Cable_230V_25_AL length=1.33 units=m
new line.5519915 phases=3 bus1=15766288 bus2=15766289 linecode=Cable_230V_0.2_AL length=0.296 units=m
new line.5519916 phases=3 bus1=15766288 bus2=15767396 linecode=Cable_230V_0.1_CU length=1.53 units=m
new line.5519917 phases=3 bus1=15767396 bus2=15739870 linecode=Cable_230V_0.1_CU length=0.228 units=m
new line.5520525 phases=3 bus1=15786481 bus2=12198459 linecode=Cable_230V_25_AL length=1.32 units=m
new line.5520557 phases=3 bus1=12483155 bus2=13309427 linecode=Cable_230V_35_AL_ASCT length=0.467 units=m
new line.5561513 phases=3 bus1=15766048 bus2=11325267 linecode=Cable_230V_25_AL length=1.23 units=m
new line.5561511 phases=3 bus1=15766047 bus2=11110773 linecode=Cable_230V_0.04_CU length=1.47 units=m
new line.9549390 phases=3 bus1=15766285 bus2=16524180 linecode=Cable_230V_0.2_AL length=0.357 units=m
new line.5561519 phases=3 bus1=9734859 bus2=15766285 linecode=UNKNOWN_LV_Cable_S length=1.47 units=m
new line.5561508 phases=3 bus1=9734858 bus2=15766044 linecode=UNKNOWN_LV_Cable_S length=1.38 units=m
new line.5561504 phases=3 bus1=15786481 bus2=15786480 linecode=Cable_230V_25_AL length=0.116 units=m
new line.5561506 phases=3 bus1=15786478 bus2=15786480 linecode=Cable_230V_25_AL length=0.129 units=m
new line.9549297 phases=3 bus1=15767204 bus2=15766048 linecode=Cable_230V_0.06_CU length=1.71 units=m
new line.5561514 phases=3 bus1=15767204 bus2=13493036 linecode=Cable_230V_0.0225_CU length=1.07 units=m
new line.5561516 phases=3 bus1=15785518 bus2=15768350 linecode=Cable_230V_0.0225_CU length=1.03 units=m
new line.9540847 phases=3 bus1=15768350 bus2=15767204 linecode=Cable_230V_0.06_CU length=2.86 units=m
new line.9549381 phases=3 bus1=15766283 bus2=14958978 linecode=Cable_230V_0.2_CU length=0.737 units=m
new line.5561518 phases=3 bus1=15766284 bus2=15766283 linecode=UNKNOWN_LV_Cable_S length=0.269 units=m
new line.5561507 phases=3 bus1=15785522 bus2=11110841 linecode=Cable_230V_25_AL length=0.84 units=m
new line.9544966 phases=3 bus1=15766054 bus2=15766047 linecode=Cable_230V_0.06_CU length=2.45 units=m
new line.9564426 phases=3 bus1=15766048 bus2=15766054 linecode=Cable_230V_0.06_CU length=0.575 units=m
new line.5561512 phases=3 bus1=15766054 bus2=15767202 linecode=UNKNOWN_LV_Cable_S length=0.108 units=m
new line.5561505 phases=3 bus1=15786479 bus2=15786480 linecode=Cable_230V_95_AL length=0.195 units=m
new line.9541133 phases=3 bus1=15786479 bus2=15842003 linecode=Cable_230V_0.1_CU length=2.64 units=m
new line.5561517 phases=3 bus1=10599081 bus2=15768350 linecode=Cable_230V_0.0225_CU length=3.54 units=m
new line.6156997 phases=3 bus1=16524179 bus2=13493034 linecode=Cable_230V_25_AL length=0.909 units=m
new line.6046414 phases=3 bus1=10981735 bus2=16817622 linecode=Cable_230V_25_AL length=0.369 units=m
new line.9565454 phases=3 bus1=16817617 bus2=16817622 linecode=Cable_230V_0.3_AL length=0.73 units=m
new line.6046415 phases=3 bus1=16817617 bus2=12824568 linecode=Cable_230V_0.0225_CU length=3.26 units=m
new line.6047787 phases=3 bus1=12174092 bus2=16817620 linecode=Cable_230V_0.0225_CU length=1.39 units=m
new line.9550338 phases=3 bus1=16817621 bus2=16817620 linecode=Cable_230V_0.3_AL length=1.92 units=m
new line.6047788 phases=3 bus1=16817621 bus2=13369759 linecode=Cable_230V_0.0225_CU length=3.21 units=m
new line.9565438 phases=3 bus1=16817614 bus2=15522702 linecode=Cable_230V_0.3_AL length=2.57 units=m
new line.6046413 phases=3 bus1=11346581 bus2=16817614 linecode=Cable_230V_0.0225_CU length=0.257 units=m
new line.9565445 phases=3 bus1=16817622 bus2=16817623 linecode=Cable_230V_0.3_AL length=2.72 units=m
new line.9576170 phases=3 bus1=16817623 bus2=16817614 linecode=Cable_230V_0.3_AL length=6.9 units=m
new line.6047789 phases=3 bus1=16818151 bus2=16817623 linecode=Cable_230V_0.0225_CU length=4.57 units=m
new line.5520528 phases=3 bus1=15785277 bus2=15785283 linecode=Cable_230V_0.1_AL length=0.822 units=m
new line.6686761 phases=3 bus1=11621762 bus2=15785283 linecode=Cable_230V_25_AL_ACT length=3.34 units=m
new line.6686762 phases=3 bus1=15739871 bus2=11062191 linecode=Cable_230V_25_AL length=0.378 units=m
new line.9541359 phases=3 bus1=16524179 bus2=15766287 linecode=Cable_230V_0.2_AL length=1.31 units=m
new line.9551553 phases=3 bus1=15766287 bus2=15766288 linecode=Cable_230V_0.2_AL length=2.4 units=m
new line.6686763 phases=3 bus1=15766287 bus2=12493906 linecode=Cable_230V_25_AL length=0.2 units=m
new line.6686757 phases=3 bus1=9411709 bus2=15738830 linecode=Cable_230V_0.15_AL length=0.0818 units=m
new line.6834697 phases=3 bus1=15766287 bus2=12493904 linecode=Cable_230V_25_AL length=0.0805 units=m
new line.9551812 phases=3 bus1=15765141 bus2=15766289 linecode=Cable_230V_185_AL_WAVE length=1.26 units=m
new line.6835138 phases=3 bus1=15765141 bus2=13484008 linecode=Cable_230V_35_AL_ACT length=0.661 units=m
new line.9541422 phases=3 bus1=14814454 bus2=14814452 linecode=Cable_230V_0.3_CU length=5.79 units=m
new line.9540815 phases=3 bus1=9408848 bus2=16817621 linecode=Cable_230V_0.3_AL length=0.146 units=m
new line.9541228 phases=3 bus1=15766282 bus2=15766283 linecode=Cable_230V_0.2_CU length=1.41 units=m
new line.9541229 phases=3 bus1=15766282 bus2=15766285 linecode=Cable_230V_0.2_AL length=0.21 units=m
new line.9541226 phases=3 bus1=15786694 bus2=15766044 linecode=Cable_230V_0.0225_CU length=1.61 units=m
new line.5520568 phases=3 bus1=15786694 bus2=15745758 linecode=Cable_230V_0.0125_AL length=0.824 units=m
new line.9541218 phases=3 bus1=15777166 bus2=12483155 linecode=Cable_230V_0.06_CU length=4.71 units=m
new line.9541219 phases=3 bus1=9358191 bus2=15786694 linecode=Cable_230V_0.2_AL length=1.08 units=m
new line.9541223 phases=3 bus1=16717579 bus2=15785286 linecode=Cable_230V_0.3_AL length=0.211 units=m
new line.9541222 phases=3 bus1=15785273 bus2=15785275 linecode=Cable_230V_240_AL_CONSAC length=1.17 units=m
new line.9549335 phases=3 bus1=15785275 bus2=17633076 linecode=Cable_230V_240_AL_CONSAC length=2.33 units=m
new line.9549337 phases=3 bus1=15767400 bus2=15767396 linecode=Cable_230V_0.1_CU length=0.212 units=m
new line.9548222 phases=3 bus1=14108675 bus2=15767403 linecode=Cable_230V_0.1_CU length=1.82 units=m
new line.9541221 phases=3 bus1=15767403 bus2=15767400 linecode=Cable_230V_0.1_CU length=0.732 units=m
new line.9541224 phases=3 bus1=14814455 bus2=12493902 linecode=Cable_230V_0.15_AL length=0.132 units=m
new line.9549322 phases=3 bus1=12493902 bus2=15738830 linecode=Cable_230V_0.15_AL length=7.66 units=m
new line.9541217 phases=3 bus1=15777166 bus2=15785284 linecode=Cable_230V_0.2_CU length=3.68 units=m
new line.9541419 phases=3 bus1=15739869 bus2=15777164 linecode=Cable_230V_0.3_CU length=1.5 units=m
new line.9555881 phases=3 bus1=15777164 bus2=14814454 linecode=Cable_230V_0.3_CU length=0.685 units=m
new line.9541423 phases=3 bus1=15765138 bus2=15767222 linecode=Cable_230V_25_AL length=0.815 units=m
new line.9545581 phases=3 bus1=16817620 bus2=16817612 linecode=Cable_230V_0.3_AL length=1.84 units=m
new line.9549349 phases=3 bus1=15785284 bus2=15778320 linecode=Cable_230V_0.2_CU length=0.506 units=m
new line.9549276 phases=3 bus1=15778320 bus2=15778321 linecode=Cable_230V_0.2_CU length=1.4 units=m
new line.9549287 phases=3 bus1=15842001 bus2=15842000 linecode=Cable_230V_0.1_CU length=2.07 units=m
new line.9570009 phases=3 bus1=15842000 bus2=14108675 linecode=Cable_230V_0.1_CU length=0.81 units=m
new line.9549312 phases=3 bus1=15786694 bus2=15745771 linecode=Cable_230V_0.2_AL length=0.178 units=m
new line.5520536 phases=3 bus1=15766045 bus2=15745771 linecode=Cable_230V_0.2_AL length=2.48 units=m
new line.9549354 phases=3 bus1=15785286 bus2=16717572 linecode=Cable_230V_0.3_AL length=0.577 units=m
new line.9563200 phases=3 bus1=15522702 bus2=16717572 linecode=Cable_230V_0.3_AL length=0.822 units=m
new line.9555915 phases=3 bus1=15785276 bus2=15785277 linecode=Cable_230V_0.1_CU length=0.891 units=m
new line.9541425 phases=3 bus1=15786480 bus2=15785276 linecode=Cable_230V_0.1_CU length=1.9 units=m
new line.9565473 phases=3 bus1=16817618 bus2=16817617 linecode=Cable_230V_0.3_AL length=0.56 units=m
new line.9544693 phases=3 bus1=16817612 bus2=16817618 linecode=Cable_230V_0.3_AL length=3.05 units=m
new line.9575983 phases=3 bus1=15766046 bus2=15766045 linecode=Cable_230V_0.06_CU length=2.58 units=m
new line.9564382 phases=3 bus1=15766047 bus2=15766046 linecode=Cable_230V_0.06_CU length=3.26 units=m
new line.11496744 phases=3 bus1=9043330 bus2=9436859 linecode=BUSBAR length=0.108 units=m
new line.3376496 phases=3 bus1=14958971 bus2=9774990 linecode=Cable_230V_4_CU length=0.302 units=m
new line.3396698 phases=3 bus1=16817612 bus2=13716940 linecode=UNKNOWN_LV_Cable_S length=0.231 units=m
new line.5520541 phases=3 bus1=15765139 bus2=15767204 linecode=Cable_230V_25_AL length=0.276 units=m
new line.3529591 phases=3 bus1=15765139 bus2=15765138 linecode=Cable_230V_25_AL length=0.353 units=m
new line.3529592 phases=3 bus1=15766054 bus2=12057943 linecode=Cable_230V_0.0225_CU length=1.17 units=m
new line.3668792 phases=3 bus1=15768350 bus2=12824571 linecode=Cable_230V_0.0225_CU length=1.82 units=m
new line.3872187 phases=3 bus1=16817620 bus2=13493029 linecode=UNKNOWN_LV_Cable_S length=0.445 units=m
new line.5519955 phases=3 bus1=15778321 bus2=15785285 linecode=Cable_230V_0.2_CU length=1.97 units=m
new line.5519954 phases=3 bus1=15778320 bus2=15778319 linecode=Cable_230V_25_CU length=1.5 units=m
new line.5519953 phases=3 bus1=15778320 bus2=15778318 linecode=Cable_230V_16_CU length=0.185 units=m
new line.5519952 phases=3 bus1=15777165 bus2=15777166 linecode=Cable_230V_0.3_CU length=0.265 units=m
new line.5520535 phases=3 bus1=15766282 bus2=15745757 linecode=Cable_230V_4_CU length=0.2 units=m
new line.5520532 phases=3 bus1=10945329 bus2=12493904 linecode=Cable_230V_25_AL length=2.46 units=m
new line.6797787 phases=3 bus1=9357472 bus2=15777165 linecode=Cable_230V_0.2_CU length=0.159 units=m
new line.5520533 phases=3 bus1=15766282 bus2=12493907 linecode=Cable_230V_0.04_CU length=0.152 units=m
new line.9564307 phases=3 bus1=15842002 bus2=15765140 linecode=Cable_230V_0.2_CU length=0.713 units=m
new line.9576466 phases=3 bus1=15785522 bus2=15842002 linecode=Cable_230V_0.2_CU length=1.39 units=m
new line.5520565 phases=3 bus1=15842002 bus2=12034986 linecode=Cable_230V_25_AL length=0.511 units=m
new line.5520534 phases=3 bus1=12493907 bus2=13716942 linecode=Cable_230V_25_AL length=0.358 units=m
new line.5520569 phases=3 bus1=12493902 bus2=9724181 linecode=Cable_230V_16_CU length=0.361 units=m
new line.9578097 phases=3 bus1=15765140 bus2=15778324 linecode=Cable_230V_0.2_CU length=1.61 units=m
new line.5520563 phases=3 bus1=15778324 bus2=9724180 linecode=Cable_230V_4_CU length=0.552 units=m
new line.5520564 phases=3 bus1=15842002 bus2=11018403 linecode=Cable_230V_25_AL length=0.527 units=m
new line.5520529 phases=3 bus1=15842001 bus2=15842989 linecode=Cable_230V_0.04_AL length=1.25 units=m
new line.5520530 phases=3 bus1=15842989 bus2=13369763 linecode=Cable_230V_35_AL_ACT length=0.289 units=m
new line.5561500 phases=3 bus1=9734857 bus2=15785286 linecode=UNKNOWN_LV_Cable_S length=1.59 units=m
new line.5561497 phases=3 bus1=12488492 bus2=15785284 linecode=Cable_230V_0.04_CU length=0.727 units=m
new line.5561496 phases=3 bus1=13280890 bus2=15785282 linecode=Cable_230V_25_AL_ACT length=0.551 units=m
new line.5561494 phases=3 bus1=15785275 bus2=11717201 linecode=Cable_230V_35_AL_ASCT length=0.569 units=m
new line.5561524 phases=3 bus1=10891998 bus2=15767396 linecode=Cable_230V_0.06_CU length=1.32 units=m
new line.5561493 phases=3 bus1=15785282 bus2=11365343 linecode=Cable_230V_35_AL_ACT length=0.541 units=m
new line.5561458 phases=3 bus1=13493031 bus2=15767400 linecode=Cable_230V_35_AL_ACT length=2.7 units=m
new line.9564341 phases=3 bus1=15785282 bus2=15842004 linecode=Cable_230V_0.2_CU length=3.07 units=m
new line.9576471 phases=3 bus1=15842004 bus2=15785522 linecode=Cable_230V_0.2_CU length=3.57 units=m
new line.5561520 phases=3 bus1=15842004 bus2=13382916 linecode=Cable_230V_0.0225_CU length=0.459 units=m
new line.5561521 phases=3 bus1=11722432 bus2=15842003 linecode=Cable_230V_0.0225_CU length=1.39 units=m
new line.5561523 phases=3 bus1=11374269 bus2=14108675 linecode=Cable_230V_0.0225_CU length=1.62 units=m
new line.6046416 phases=3 bus1=16817618 bus2=13378417 linecode=Cable_230V_0.0225_CU length=3.07 units=m
new line.6118997 phases=3 bus1=16717581 bus2=17633074 linecode=Cable_230V_0.3_CU length=0.149 units=m
new line.6118998 phases=3 bus1=16717554 bus2=16717581 linecode=Cable_230V_0.3_CU length=0.106 units=m
new line.6118996 phases=3 bus1=16717554 bus2=16717579 linecode=Cable_230V_0.3_AL length=1.67 units=m
new line.6650482 phases=3 bus1=15766046 bus2=13493041 linecode=Cable_230V_0.06_CU length=0.929 units=m
new line.6761008 phases=3 bus1=12303115 bus2=15785284 linecode=Cable_230V_35_AL_ACT length=0.729 units=m
new line.9541368 phases=3 bus1=15841999 bus2=15765141 linecode=Cable_230V_185_AL_WAVE length=2.06 units=m
new line.9564280 phases=3 bus1=15778324 bus2=15841999 linecode=Cable_230V_0.2_CU length=0.0641 units=m
new line.6945211 phases=3 bus1=11192291 bus2=15841999 linecode=Cable_230V_95_AL length=0.874 units=m
new line.9549304 phases=3 bus1=12483155 bus2=15778323 linecode=Cable_230V_0.06_CU length=13.2 units=m
new line.9555888 phases=3 bus1=15767222 bus2=13241942 linecode=Cable_230V_25_AL length=0.504 units=m
new line.9570007 phases=3 bus1=14814456 bus2=14814455 linecode=Cable_230V_0.3_CU length=0.132 units=m
new line.9555929 phases=3 bus1=14814452 bus2=14814456 linecode=Cable_230V_0.3_CU length=1.41 units=m
new line.5896145 phases=3 bus1=16708858 bus2=16709934 linecode=Cable_230V_4_CU length=0.68 units=m
new line.5897497 phases=3 bus1=13489778 bus2=16708860 linecode=UNKNOWN_LV_Cable_S length=0.745 units=m
new line.5900272 phases=3 bus1=16709392 bus2=16709393 linecode=Cable_230V_35_AL_ASCT length=0.304 units=m
new line.8991780 phases=3 bus1=16709391 bus2=16709392 linecode=Cable_230V_240_AL_CONSAC length=1.39 units=m
new line.5900273 phases=3 bus1=16709916 bus2=16709391 linecode=Cable_230V_35_AL_ASCT length=0.258 units=m
new line.6690399 phases=3 bus1=16708857 bus2=16708860 linecode=Cable_230V_25_AL length=0.309 units=m
new line.8973296 phases=3 bus1=16708866 bus2=16708857 linecode=Cable_230V_0.06_AL length=0.939 units=m
new line.8973311 phases=3 bus1=16708867 bus2=16708866 linecode=Cable_230V_0.06_AL length=1.87 units=m
new line.11496745 phases=3 bus1=9043330 bus2=9436864 linecode=BUSBAR length=0.089 units=m
new line.7151146 phases=3 bus1=9436864 bus2=17522560 linecode=CONNECTOR length=0.0432 units=m
new line.7151147 phases=3 bus1=17522559 bus2=17522560 linecode=CONNECTOR length=0.292 units=m
new line.3551564 phases=3 bus1=16708855 bus2=16708864 linecode=Cable_230V_35_AL_ASCT length=0.175 units=m
new line.5896146 phases=3 bus1=16708864 bus2=16708863 linecode=Cable_230V_35_AL_ASCT length=1.38 units=m
new line.5897509 phases=3 bus1=11116674 bus2=16708863 linecode=Cable_230V_0.15_CU length=1.06 units=m
new line.5900293 phases=3 bus1=13893161 bus2=16709916 linecode=Cable_230V_25_AL_ACT length=0.804 units=m
new line.5897511 phases=3 bus1=16709378 bus2=16709377 linecode=Cable_230V_35_AL_ASCT length=0.347 units=m
new line.5897508 phases=3 bus1=16708855 bus2=11065916 linecode=Cable_230V_25_AL length=0.823 units=m
new line.8973340 phases=3 bus1=16709378 bus2=16709379 linecode=Cable_230V_240_AL_CONSAC length=3.03 units=m
new line.5900292 phases=3 bus1=10931974 bus2=16709379 linecode=Cable_230V_25_AL_ACT length=1.14 units=m
new line.8984530 phases=3 bus1=16709392 bus2=16709918 linecode=Cable_230V_240_AL_CONSAC length=1.36 units=m
new line.5897515 phases=3 bus1=16709917 bus2=16709918 linecode=Cable_230V_35_AL_ASCT length=0.812 units=m
new line.5897512 phases=3 bus1=16708893 bus2=16709932 linecode=Cable_230V_4_CU length=0.295 units=m
new line.5897513 phases=3 bus1=16708893 bus2=16708884 linecode=Cable_230V_4_CU length=1.62 units=m
new line.5897506 phases=3 bus1=16708869 bus2=9878805 linecode=UNKNOWN_LV_Cable_S length=1.22 units=m
new line.5900271 phases=3 bus1=12797449 bus2=16709917 linecode=Cable_230V_25_AL length=0.743 units=m
new line.5897516 phases=3 bus1=16709918 bus2=16709390 linecode=Cable_230V_25_AL length=0.258 units=m
new line.8984522 phases=3 bus1=16709369 bus2=16709378 linecode=Cable_230V_240_AL_CONSAC length=3.04 units=m
new line.8973354 phases=3 bus1=16708884 bus2=16709369 linecode=Cable_230V_240_AL_CONSAC length=3.64 units=m
new line.5897514 phases=3 bus1=16709376 bus2=16709369 linecode=Cable_230V_35_AL_ASCT length=0.372 units=m
new line.5897504 phases=3 bus1=16708879 bus2=12302738 linecode=Cable_230V_25_AL_ACT length=1.35 units=m
new line.5900288 phases=3 bus1=13494191 bus2=16709380 linecode=Cable_230V_25_AL_ACT length=0.818 units=m
new line.8991781 phases=3 bus1=16709381 bus2=16709391 linecode=Cable_230V_240_AL_CONSAC length=3.65 units=m
new line.8984539 phases=3 bus1=16709379 bus2=16709381 linecode=Cable_230V_240_AL_CONSAC length=2.74 units=m
new line.6838283 phases=3 bus1=16709380 bus2=16709381 linecode=Cable_230V_35_AL_ASCT length=0.296 units=m
new line.8984525 phases=3 bus1=16709918 bus2=16708859 linecode=Cable_230V_240_AL_CONSAC length=2.23 units=m
new line.8963213 phases=3 bus1=16708859 bus2=16708857 linecode=Cable_230V_240_AL_CONSAC length=0.319 units=m
new line.8963852 phases=3 bus1=13489777 bus2=16708869 linecode=Cable_230V_0.04_CU length=1.67 units=m
new line.8963851 phases=3 bus1=16708883 bus2=16708884 linecode=Cable_230V_240_AL_CONSAC length=1.51 units=m
new line.8973320 phases=3 bus1=16708880 bus2=16708879 linecode=Cable_230V_0.15_CU length=0.323 units=m
new line.5896144 phases=3 bus1=16708858 bus2=16708861 linecode=Cable_230V_4_CU length=0.276 units=m
new line.8974588 phases=3 bus1=16708857 bus2=16708861 linecode=Cable_230V_240_AL_CONSAC length=2.43 units=m
...