data/raw/dsuite_networks_scaled_v1.1/spd_u/statcom_locations.dss
! chosen manually using master
! ID here then replace in xxxx
!17522559
!15461308
!15461331
!14991958
!14978947
!15092405
!15136254
!15136229
!15208810
!15766046
!14137299
!15384501


new load.statcom_17522559_1 bus1=17522559.1 kv=0.2396003617136947 phases=1 kW=0 pf=1
new load.statcom_17522559_2 bus1=17522559.2 kv=0.2396003617136947 phases=1 kW=0 pf=1
new load.statcom_17522559_3 bus1=17522559.3 kv=0.2396003617136947 phases=1 kW=0 pf=1

new load.statcom_15461308_1 bus1=15461308.1 kv=0.2396003617136947 phases=1 kW=0 pf=1
new load.statcom_15461308_2 bus1=15461308.2 kv=0.2396003617136947 phases=1 kW=0 pf=1
new load.statcom_15461308_3 bus1=15461308.3 kv=0.2396003617136947 phases=1 kW=0 pf=1

new load.statcom_15461331_1 bus1=15461331.1 kv=0.2396003617136947 phases=1 kW=0 pf=1
new load.statcom_15461331_2 bus1=15461331.2 kv=0.2396003617136947 phases=1 kW=0 pf=1
new load.statcom_15461331_3 bus1=15461331.3 kv=0.2396003617136947 phases=1 kW=0 pf=1

new load.statcom_14991958_1 bus1=14991958.1 kv=0.2396003617136947 phases=1 kW=0 pf=1
new load.statcom_14991958_2 bus1=14991958.2 kv=0.2396003617136947 phases=1 kW=0 pf=1
new load.statcom_14991958_3 bus1=14991958.3 kv=0.2396003617136947 phases=1 kW=0 pf=1

new load.statcom_14978947_1 bus1=14978947.1 kv=0.2396003617136947 phases=1 kW=0 pf=1
new load.statcom_14978947_2 bus1=14978947.2 kv=0.2396003617136947 phases=1 kW=0 pf=1
new load.statcom_14978947_3 bus1=14978947.3 kv=0.2396003617136947 phases=1 kW=0 pf=1

new load.statcom_15092405_1 bus1=15092405.1 kv=0.2396003617136947 phases=1 kW=0 pf=1
new load.statcom_15092405_2 bus1=15092405.2 kv=0.2396003617136947 phases=1 kW=0 pf=1
new load.statcom_15092405_3 bus1=15092405.3 kv=0.2396003617136947 phases=1 kW=0 pf=1

new load.statcom_15136254_1 bus1=15136254.1 kv=0.2396003617136947 phases=1 kW=0 pf=1
new load.statcom_15136254_2 bus1=15136254.2 kv=0.2396003617136947 phases=1 kW=0 pf=1
new load.statcom_15136254_3 bus1=15136254.3 kv=0.2396003617136947 phases=1 kW=0 pf=1

new load.statcom_15136229_1 bus1=15136229.1 kv=0.2396003617136947 phases=1 kW=0 pf=1
new load.statcom_15136229_2 bus1=15136229.2 kv=0.2396003617136947 phases=1 kW=0 pf=1
new load.statcom_15136229_3 bus1=15136229.3 kv=0.2396003617136947 phases=1 kW=0 pf=1

new load.statcom_15208810_1 bus1=15208810.1 kv=0.2396003617136947 phases=1 kW=0 pf=1
new load.statcom_15208810_2 bus1=15208810.2 kv=0.2396003617136947 phases=1 kW=0 pf=1
new load.statcom_15208810_3 bus1=15208810.3 kv=0.2396003617136947 phases=1 kW=0 pf=1

new load.statcom_15766046_1 bus1=15766046.1 kv=0.2396003617136947 phases=1 kW=0 pf=1
new load.statcom_15766046_2 bus1=15766046.2 kv=0.2396003617136947 phases=1 kW=0 pf=1
new load.statcom_15766046_3 bus1=15766046.3 kv=0.2396003617136947 phases=1 kW=0 pf=1

new load.statcom_14137299_1 bus1=14137299.1 kv=0.2396003617136947 phases=1 kW=0 pf=1
new load.statcom_14137299_2 bus1=14137299.2 kv=0.2396003617136947 phases=1 kW=0 pf=1
new load.statcom_14137299_3 bus1=14137299.3 kv=0.2396003617136947 phases=1 kW=0 pf=1

new load.statcom_15384501_1 bus1=15384501.1 kv=0.2396003617136947 phases=1 kW=0 pf=1
new load.statcom_15384501_2 bus1=15384501.2 kv=0.2396003617136947 phases=1 kW=0 pf=1
new load.statcom_15384501_3 bus1=15384501.3 kv=0.2396003617136947 phases=1 kW=0 pf=1

